Distrib/Examples/Paulo_Example/DSSFiles/subestacao.dss
//------------------------------------------------------------------------------------------------------------------------------//
// Dados do equivalente
 
New Circuit.IEEE13BARRAS 
~ basekv=115 pu=1.0 phases=3 bus1=SourceBus  
~ Angle=30                                            
~ MVAsc3=1000000000 MVAsc1=1000000000
AddBusMarker Bus=SourceBus Code=36 color=Red size=2

//------------------------------------------------------------------------------------------------------------------------------//